7X5N_5M5_A_501
     RDKit          3D

 30 33  0  0  0  0  0  0  0  0999 V2000
   80.0574   46.6733   53.1770 C   0  0  0  0  0  0  0  0  0  0  0  0
   81.1110   47.7446   53.2651 C   0  0  0  0  0  0  0  0  0  0  0  0
   81.8948   48.0554   52.1457 C   0  0  0  0  0  0  0  0  0  0  0  0
   81.4229   50.3342   56.9511 C   0  0  1  0  0  0  0  0  0  0  0  0
   81.7343   51.2286   58.1695 C   0  0  0  0  0  0  0  0  0  0  0  0
   80.0022   50.5937   56.3981 C   0  0  0  0  0  0  0  0  0  0  0  0
   81.3305   48.4165   54.4760 C   0  0  0  0  0  0  0  0  0  0  0  0
   82.8673   49.0618   52.2120 C   0  0  0  0  0  0  0  0  0  0  0  0
   83.6846   49.3978   51.0224 C   0  0  0  0  0  0  0  0  0  0  0  0
   84.6966   50.3727   51.1053 C   0  0  0  0  0  0  0  0  0  0  0  0
   85.4660   50.6877   49.9827 C   0  0  0  0  0  0  0  0  0  0  0  0
   85.2377   50.0344   48.7699 C   0  0  0  0  0  0  0  0  0  0  0  0
   84.2388   49.0618   48.6774 C   0  0  0  0  0  0  0  0  0  0  0  0
   83.4626   48.7463   49.7950 C   0  0  0  0  0  0  0  0  0  0  0  0
   83.0546   49.7482   53.4216 C   0  0  0  0  0  0  0  0  0  0  0  0
   82.2890   49.4488   54.5724 C   0  0  0  0  0  0  0  0  0  0  0  0
   82.5714   50.2579   55.8602 C   0  0  1  0  0  0  0  0  0  0  0  0
   82.9011   51.6948   55.4557 C   0  0  0  0  0  0  0  0  0  0  0  0
   82.3318   52.6288   54.5850 C   0  0  0  0  0  0  0  0  0  0  0  0
   81.1712   52.4544   53.6546 C   0  0  0  0  0  0  0  0  0  0  0  0
   83.9075   52.3932   56.0524 C   0  0  0  0  0  0  0  0  0  0  0  0
   84.8056   50.4174   57.0996 C   0  0  0  0  0  0  0  0  0  0  0  0
   83.8266   49.6442   56.5432 C   0  0  0  0  0  0  0  0  0  0  0  0
   83.9152   48.1970   56.6433 C   0  0  0  0  0  0  0  0  0  0  0  0
   82.9842   53.8083   54.7114 N   0  0  0  0  0  0  0  0  0  0  0  0
   83.9440   53.6564   55.6110 N   0  0  0  0  0  0  0  0  0  0  0  0
   85.8908   49.8433   57.8376 N   0  0  0  0  0  0  0  0  0  0  0  0
   83.9804   47.0447   56.7364 N   0  0  0  0  0  0  0  0  0  0  0  0
   78.8408   47.1471   53.6857 O   0  0  0  0  0  0  0  0  0  0  0  0
   84.8003   51.8091   56.9356 O   0  0  0  0  0  0  0  0  0  0  0  0
  1  2  1  0
  2  3  2  0
  4  5  1  1
  6  4  1  6
  2  7  1  0
  3  8  1  0
  8  9  1  0
  9 10  2  0
 10 11  1  0
 11 12  2  0
 12 13  1  0
  9 14  1  0
 13 14  2  0
  8 15  2  0
 15 16  1  0
  7 16  2  0
 17  4  1  0
 17 16  1  6
 17 18  1  0
 18 19  1  0
 20 19  1  6
 18 21  2  0
 22 23  2  0
 17 23  1  0
 23 24  1  0
 19 25  2  0
 21 26  1  0
 25 26  1  0
 22 27  1  0
 24 28  3  0
  1 29  1  1
 22 30  1  0
 21 30  1  0
M  END
$$$$
