6ZXQ_IMO_A_503
     RDKit          3D

 27 29  0  0  0  0  0  0  0  0999 V2000
  -16.6910   -7.1064    8.5495 P   0  0  2  0  0  5  0  0  0  0  0  0
  -16.3588   -8.7610    8.6608 O   0  0  0  0  0  0  0  0  0  0  0  0
  -20.9626   -6.2814   10.1192 C   0  0  0  0  0  0  0  0  0  0  0  0
  -21.5028   -8.5979   13.8890 C   0  0  1  0  0  0  0  0  0  0  0  0
  -22.0049  -10.0096   13.6001 C   0  0  1  0  0  0  0  0  0  0  0  0
  -22.6053  -10.4252   14.9222 C   0  0  1  0  0  0  0  0  0  0  0  0
  -21.7779   -9.6079   15.9288 C   0  0  1  0  0  0  0  0  0  0  0  0
  -20.6836  -10.4646   16.5780 C   0  0  0  0  0  0  0  0  0  0  0  0
  -17.8506   -6.8564    7.3415 O   0  0  0  0  0  0  0  0  0  0  0  0
  -15.4201   -6.3645    8.1974 O   0  0  0  0  0  0  0  0  0  0  0  0
  -18.2302  -11.0513   16.7986 P   0  0  1  0  0  5  0  0  0  0  0  0
  -18.4007  -12.6008   16.1401 O   0  0  0  0  0  0  0  0  0  0  0  0
  -18.4173  -11.1528   18.4802 O   0  0  0  0  0  0  0  0  0  0  0  0
  -16.8518  -10.5222   16.4634 O   0  0  0  0  0  0  0  0  0  0  0  0
  -19.4219  -10.0333   16.1254 O   0  0  0  0  0  0  0  0  0  0  0  0
  -21.1797   -8.5102   15.2616 O   0  0  0  0  0  0  0  0  0  0  0  0
  -20.3346   -8.2854   13.0626 N   0  0  0  0  0  0  0  0  0  0  0  0
  -20.2588   -7.5564   11.9401 C   0  0  0  0  0  0  0  0  0  0  0  0
  -21.2753   -6.9981   11.2397 N   0  0  0  0  0  0  0  0  0  0  0  0
  -19.6551   -6.1328    9.7305 N   0  0  0  0  0  0  0  0  0  0  0  0
  -18.6305   -6.6956   10.4423 C   0  0  0  0  0  0  0  0  0  0  0  0
  -17.2954   -6.5443   10.0598 O   0  0  0  0  0  0  0  0  0  0  0  0
  -18.9634   -7.4238   11.5744 C   0  0  0  0  0  0  0  0  0  0  0  0
  -18.1562   -8.0499   12.4506 N   0  0  0  0  0  0  0  0  0  0  0  0
  -19.0373   -8.5632   13.3535 C   0  0  0  0  0  0  0  0  0  0  0  0
  -22.9091  -10.0831   12.5219 O   0  0  0  0  0  0  0  0  0  0  0  0
  -23.9775  -10.1141   15.0104 O   0  0  0  0  0  0  0  0  0  0  0  0
  1  2  1  1
  4  5  1  0
  5  6  1  0
  6  7  1  0
  7  8  1  0
  1  9  1  0
  1 10  2  0
 11 12  1  6
 11 13  1  0
 11 14  2  0
  8 15  1  1
 11 15  1  0
  4 16  1  0
  7 16  1  6
  4 17  1  6
 17 18  1  0
  3 19  2  0
 18 19  1  0
  3 20  1  0
 20 21  2  0
  1 22  1  0
 21 22  1  0
 18 23  2  0
 21 23  1  0
 23 24  1  0
 17 25  1  0
 24 25  2  0
  5 26  1  6
  6 27  1  6
M  END
$$$$
